26
	Energy:      84.5218105
C          0.76165       -0.34411        0.07807
N          2.14501       -0.21213        0.46579
N          2.51766        0.88510        1.16836
C          3.84076        0.74119        1.28719
C          4.29747       -0.43723        0.67815
C          3.18316       -1.07632        0.18664
N          3.03363       -2.25892       -0.45595
N          5.63682       -0.84097        0.62313
N          6.16334       -0.56139       -0.48043
C          6.90159        0.63776       -0.38884
C          8.03582        0.75860        0.42228
C          8.68718        1.98834        0.54525
C          8.21388        3.10206       -0.14921
C          7.10114        2.98571       -0.97985
C          6.45532        1.75581       -1.10466
H          0.32356        0.65292       -0.02335
H          0.24389       -0.90875        0.85630
H          0.70066       -0.86098       -0.88221
H          4.41742        1.50227        1.79520
H          3.83334       -2.89014       -0.49808
H          2.14254       -2.74466       -0.49509
H          8.39678       -0.10375        0.97627
H          9.55606        2.08019        1.19172
H          8.71094        4.06287       -0.04107
H          6.72694        3.85135       -1.52004
H          5.57500        1.66833       -1.73738
