28
	Energy:      21.7145539
C         -4.91831       -0.86248       -1.01192
N         -3.96445       -1.14607        0.03758
C         -3.93050       -2.31869        0.74957
C         -3.01276       -2.17025        1.76295
C         -2.44941       -0.88071        1.62540
C         -2.97630       -0.29323        0.48568
N         -2.67893        0.84455       -0.20676
N         -1.71940        1.54049        0.19022
C         -0.41659        1.08433       -0.14286
C          0.66053        1.87683        0.25049
C          1.96609        1.46280        0.01452
N          3.01379        2.26232        0.51067
C          4.35050        1.77933        0.20146
N          2.19745        0.28361       -0.59945
N          1.16514       -0.50357       -1.02024
C         -0.10213       -0.10131       -0.79109
H         -4.46831       -0.20887       -1.76199
H         -5.78233       -0.37583       -0.55050
H         -5.22399       -1.80037       -1.48274
H         -4.57258       -3.15167        0.49319
H         -2.76586       -2.91130        2.51181
H         -1.67874       -0.44734        2.25078
H          0.47413        2.81062        0.77111
H          2.87849        3.22469        0.21342
H          4.47405        0.71213        0.41589
H          5.07049        2.31557        0.82808
H          4.60492        1.97507       -0.84545
H         -0.85634       -0.79648       -1.13713
