31
	Energy:     109.2593820
C          4.44455        0.40621        1.51512
C          4.10492       -0.45296        0.34295
N          5.10388       -1.22426       -0.15853
O          4.47714       -1.92907       -1.26035
C          3.14065       -1.46862       -1.27627
C          2.21495       -2.04455       -2.26996
C          2.87609       -0.49623       -0.22823
N          1.69768        0.14094        0.04880
N          0.51731       -0.10831       -0.81589
C         -0.62524        0.52885       -0.45410
C         -0.75177        1.44811        0.59355
C         -1.98001        2.04358        0.91986
C         -3.15086        1.71271        0.22853
N         -4.36787        2.34109        0.60456
C         -5.56473        1.56487        0.34693
C         -3.02587        0.85823       -0.86902
C         -1.79013        0.27042       -1.18656
H          5.24613        1.10890        1.26064
H          4.78009       -0.20618        2.35975
H          3.59193        0.99899        1.86257
H          2.73056       -2.78641       -2.88937
H          1.82929       -1.27546       -2.94561
H          1.37916       -2.55742       -1.78485
H          0.14295        1.69217        1.16304
H         -1.98840        2.74838        1.74084
H         -4.27295        2.59628        1.58391
H         -5.79039        1.51377       -0.72301
H         -6.41656        2.05694        0.82797
H         -5.49275        0.55291        0.76060
H         -3.86679        0.61175       -1.50077
H         -1.71070       -0.41588       -2.02549
