31
	Energy:       7.1383545
C          5.19153        0.74278       -0.02777
C          4.17253       -0.30656       -0.22394
N          4.51580       -1.52828       -0.67458
O          3.31646       -2.23236       -0.74974
C          2.29058       -1.43590       -0.33499
C          0.94113       -2.02287       -0.32274
C          2.78371       -0.20071        0.00770
N          2.04198        0.83207        0.52921
N          1.11395        1.37086       -0.47992
C         -0.19982        1.37464       -0.14599
C         -0.74574        0.88028        1.04441
C         -2.13124        0.79351        1.24695
C         -3.03507        1.18505        0.25336
N         -4.42047        1.04958        0.50742
C         -5.29114        1.03102       -0.65118
C         -2.50479        1.78379       -0.89051
C         -1.11660        1.85595       -1.08775
H          6.17365        0.41909       -0.38906
H          5.28921        0.99020        1.03387
H          4.92099        1.65279       -0.57283
H          0.96975       -3.08747       -0.57504
H          0.29032       -1.52763       -1.04908
H          0.48927       -1.93277        0.67023
H         -0.06585        0.51998        1.81278
H         -2.47706        0.38060        2.18635
H         -4.54026        0.23353        1.10223
H         -5.35362        2.01904       -1.11857
H         -6.30364        0.76365       -0.33155
H         -4.97262        0.28903       -1.39168
H         -3.13596        2.17782       -1.67460
H         -0.72281        2.27323       -2.01109
