32
	Energy:      25.4862970
C          4.52358       -1.90229        0.96124
C          4.15456       -0.47339        0.89180
C          2.98565        0.16877        0.56233
C          3.26102        1.55325        0.65045
C          2.36339        2.69825        0.36817
N          4.52743        1.76690        1.04140
N          5.03821        0.53055        1.17853
N          1.80760       -0.47101        0.16613
N          0.78493        0.03749        0.67234
C         -0.36097       -0.65174        0.24163
C         -0.68795       -1.90818        0.75524
C         -1.85064       -2.56497        0.33625
C         -2.73634       -1.97185       -0.57521
N         -3.84235       -2.71086       -1.00426
C         -4.94064       -2.03899       -1.67481
C         -2.38223       -0.72623       -1.10566
C         -1.21954       -0.06459       -0.68849
H          3.63526       -2.53690        1.04097
H          5.15539       -2.10243        1.83276
H          5.07362       -2.19756        0.06219
H          1.80520        2.53443       -0.55921
H          2.92731        3.63022        0.25575
H          1.64789        2.83189        1.18559
H          6.00700        0.44583        1.46764
H         -0.02901       -2.38323        1.47671
H         -2.06033       -3.55535        0.73296
H         -4.15620       -3.37050       -0.29650
H         -4.63435       -1.64596       -2.64942
H         -5.34770       -1.22933       -1.06012
H         -5.74520       -2.75925       -1.85480
H         -3.00041       -0.24113       -1.85456
H         -0.97640        0.90965       -1.10374
