32
	Energy:     122.3345426
C          1.33246       -0.94957       -1.57712
C          2.18360       -1.15987       -0.38180
C          2.80869       -0.13381        0.40622
C          4.00906       -0.72874        0.95499
C          5.12082        0.00486        1.59825
N          4.17353       -2.01672        0.55243
N          2.92446       -2.40682       -0.17835
N          2.31338        1.04624        0.87776
N          1.15473        1.69129        0.18130
C         -0.08877        1.37226        0.62496
C         -0.39287        0.29031        1.45959
C         -1.71100       -0.08529        1.74628
C         -2.79419        0.60516        1.19478
N         -4.10669        0.15295        1.49303
C         -5.12323        0.49958        0.52198
C         -2.50964        1.75880        0.45949
C         -1.18253        2.11530        0.16519
H          1.10554        0.09587       -1.78753
H          0.38736       -1.49047       -1.46684
H          1.83807       -1.33871       -2.46795
H          4.89975        1.06694        1.74026
H          6.02713       -0.05715        0.98453
H          5.34782       -0.42157        2.58084
H          3.14231       -2.88205       -1.03866
H          0.43521       -0.30672        1.84295
H         -1.84785       -0.96130        2.36745
H         -4.02693       -0.85321        1.62991
H         -5.35126        1.56993        0.54538
H         -6.04888       -0.02763        0.77561
H         -4.84143        0.20074       -0.49363
H         -3.29118        2.38949        0.06260
H         -0.97438        2.97942       -0.45904
