32
	Energy:      27.1812021
C         -2.63770        2.44886       -1.23629
C         -3.33596        1.45961       -0.38938
C         -2.96725        0.24567        0.14359
C         -4.10742       -0.24812        0.81525
C         -4.28443       -1.53319        1.53070
N         -5.12405        0.62515        0.74802
N         -4.62646        1.64484        0.02689
N         -1.75109       -0.43292        0.01397
N         -0.76862        0.28278        0.30677
C          0.44285       -0.43002        0.19830
C          1.51645        0.15671       -0.48853
C          2.77161       -0.46784       -0.59051
N          3.75149        0.13686       -1.38135
C          5.11850       -0.34908       -1.37928
C          2.91273       -1.73306       -0.01082
C          1.86080       -2.33036        0.69018
C          0.63512       -1.67777        0.79993
H         -1.65096        2.09371       -1.54672
H         -2.50502        3.39131       -0.69559
H         -3.21630        2.65166       -2.14363
H         -3.37115       -2.13543        1.51316
H         -5.08384       -2.12049        1.06667
H         -4.55166       -1.35598        2.57761
H         -5.23314        2.43705       -0.15780
H          1.35751        1.12201       -0.96309
H          3.68600        1.15177       -1.37016
H          5.17733       -1.40269       -1.67021
H          5.58741       -0.20882       -0.40020
H          5.69910        0.21671       -2.11526
H          3.84545       -2.28322       -0.08738
H          1.99759       -3.30852        1.14349
H         -0.17665       -2.14629        1.34943
