25
	Energy:      26.9012768
C          1.20474        2.90293       -0.61218
N          2.05233        1.82820       -0.14533
C          3.40497        1.93001        0.05725
C          3.85690        0.71069        0.50626
C          2.73484       -0.14855        0.57558
C          1.61352        0.55769        0.16693
N          0.30068        0.23440        0.03143
N         -0.03010       -0.86398        0.52437
C         -1.39785       -1.12995        0.31911
C         -1.77153       -2.39256       -0.15493
C         -3.11713       -2.71591       -0.34668
C         -4.10615       -1.77758       -0.05725
C         -3.75161       -0.52042        0.42892
C         -2.40499       -0.20171        0.62200
H          1.80425        3.80543       -0.75645
H          0.43458        3.08930        0.14089
H          0.75500        2.60165       -1.56164
H          3.93569        2.85391       -0.13252
H          4.88085        0.46536        0.75616
H          2.73274       -1.18418        0.88859
H         -1.00319       -3.12868       -0.37761
H         -3.39080       -3.69972       -0.71885
H         -5.15357       -2.02814       -0.20558
H         -4.52125        0.21047        0.66257
H         -2.13685        0.77546        1.01479
