25
	Energy:     -20.5268711
C          1.66034       -0.10388       -2.26349
N          2.60237       -0.34168       -1.19637
C          3.96153       -0.50290       -1.38066
C          4.52485       -0.78033       -0.15510
C          3.47527       -0.78649        0.79472
C          2.30039       -0.49492        0.13396
N          1.11403       -0.44483        0.78397
N          0.06822        0.31714        0.09160
C         -1.15786        0.31079        0.67005
C         -1.52021       -0.41866        1.81309
C         -2.81520       -0.37535        2.34568
C         -3.79301        0.40788        1.74064
C         -3.46774        1.14303        0.60529
C         -2.16849        1.08883        0.08456
H          2.16839       -0.23647       -3.22359
H          1.29990        0.92531       -2.19779
H          0.84804       -0.83228       -2.20338
H          4.39446       -0.40973       -2.36270
H          5.56859       -0.96133        0.04069
H          3.54143       -0.96807        1.85695
H         -0.76009       -1.03363        2.28995
H         -3.03557       -0.95894        3.23037
H         -4.79377        0.44445        2.15014
H         -4.20787        1.76207        0.11494
H         -1.91381        1.66509       -0.80096
