26
	Energy:      38.7426036
F         -1.33088       -2.63901       -0.36826
C         -2.40780       -1.86409       -0.16683
C         -3.64271       -2.48253        0.02450
C         -4.78303       -1.70511        0.21734
C         -4.68291       -0.31346        0.21629
C         -3.43992        0.30005        0.02563
C         -2.28371       -0.46852       -0.15871
N         -1.05298        0.17721       -0.38396
N         -0.26812       -0.04510        0.56420
C          0.97982        0.56778        0.34572
C          1.10877        1.94737        0.14949
C          2.37086        2.53170       -0.00502
C          3.52559        1.74644       -0.00022
N          4.78774        2.35069       -0.01359
C          3.40209        0.37995        0.26015
C          2.14052       -0.20711        0.41335
H         -3.70333       -3.56625        0.01663
H         -5.74907       -2.18257        0.36400
H         -5.57218        0.29558        0.36130
H         -3.36926        1.38496        0.02220
H          0.22182        2.57449        0.13698
H          2.44122        3.60955       -0.12239
H          4.81075        3.24162       -0.49970
H          5.53573        1.73191       -0.31073
H          4.28774       -0.24309        0.35192
H          2.06248       -1.27465        0.60286
